REMARK  7 active torsions:
REMARK  status: ('A' for Active; 'I' for Inactive)
REMARK    1  A    between atoms: C1_1  and  C13_24 
REMARK    2  A    between atoms: C7_5  and  O2_11 
REMARK    3  A    between atoms: O2_11  and  C2_12 
REMARK    4  A    between atoms: C8_16  and  O1_20 
REMARK    5  A    between atoms: C13_24  and  CA_27 
REMARK    6  A    between atoms: CA_27  and  C_33 
REMARK    7  A    between atoms: CA_27  and  N_29 
ROOT
ATOM      1  C1  T3  d   1      15.391  19.919  27.628  1.00  0.00    -0.053 A 
ATOM      2  C3  T3  d   1      16.463  20.567  28.344  1.00  0.00    -0.058 A 
ATOM      3  H3  T3  d   1      16.388  21.634  28.614  1.00  0.00     0.086 H 
ATOM      4  C5  T3  d   1      17.588  19.835  28.689  1.00  0.00     0.042 A 
ATOM      5  C7  T3  d   1      17.705  18.462  28.335  1.00  0.00     0.109 A 
ATOM      6  C9  T3  d   1      16.631  17.847  27.619  1.00  0.00     0.042 A 
ATOM      7  C11 T3  d   1      15.460  18.609  27.262  1.00  0.00    -0.058 A 
ATOM      8  H11 T3  d   1      14.634  18.139  26.702  1.00  0.00     0.086 H 
ATOM      9  I1  T3  d   1      19.120  20.789  29.790  1.00  0.00    -0.042 I 
ATOM     10  I3  T3  d   1      16.779  15.799  27.102  1.00  0.00    -0.042 I 
ENDROOT
BRANCH   5  11
ATOM     11  O2  T3  d   1      18.810  17.660  28.647  1.00  0.00    -0.308 OA
BRANCH  11  12
ATOM     12  C2  T3  d   1      19.058  17.125  29.916  1.00  0.00     0.077 A 
ATOM     13  C4  T3  d   1      20.349  17.220  30.406  1.00  0.00    -0.032 A 
ATOM     14  C6  T3  d   1      20.668  16.780  31.653  1.00  0.00     0.042 A 
ATOM     15  H4  T3  d   1      21.136  17.662  29.772  1.00  0.00     0.089 H 
ATOM     16  I2  T3  d   1      22.605  17.047  32.366  1.00  0.00    -0.042 I 
ATOM     17  C8  T3  d   1      19.661  16.183  32.467  1.00  0.00     0.082 A 
ATOM     18  C10 T3  d   1      18.329  16.072  31.981  1.00  0.00    -0.047 A 
ATOM     19  C12 T3  d   1      18.028  16.545  30.687  1.00  0.00    -0.048 A 
ATOM     20  H10 T3  d   1      17.541  15.622  32.608  1.00  0.00     0.087 H 
ATOM     21  H12 T3  d   1      17.004  16.463  30.284  1.00  0.00     0.087 H 
BRANCH  17  22
ATOM     22  O1  T3  d   1      20.007  15.717  33.742  1.00  0.00    -0.359 OA
ATOM     23  H1  T3  d   1      19.336  15.319  34.284  1.00  0.00     0.217 HD
ENDBRANCH  17  22
ENDBRANCH  11  12
ENDBRANCH   5  11
BRANCH   1  24
ATOM     24  C13 T3  d   1      14.312  20.669  26.999  1.00  0.00    -0.005 C 
ATOM     25 2H13 T3  d   1      14.698  21.294  26.160  1.00  0.00     0.044 H 
ATOM     26 1H13 T3  d   1      13.638  19.991  26.426  1.00  0.00     0.044 H 
BRANCH  24  27
ATOM     27  CA  T3  d   1      13.534  21.500  27.971  1.00  0.00     0.186 C 
ATOM     28  HA  T3  d   1      14.272  22.125  28.526  1.00  0.00     0.101 H 
BRANCH  27  29
ATOM     29  C   T3  d   1      12.680  22.442  27.172  1.00  0.00     0.204 C 
ATOM     30  OXT T3  d   1      13.114  22.802  25.985  1.00  0.00    -0.646 OA
ATOM     31  O   T3  d   1      11.551  22.836  27.558  1.00  0.00    -0.646 OA
ENDBRANCH  27  29
BRANCH  27  32
ATOM     32  N   T3  d   1      12.841  20.704  28.950  1.00  0.00    -0.065 N 
ATOM     33  HN3 T3  d   1      12.244  20.010  28.501  1.00  0.00     0.275 HD
ATOM     34  HN2 T3  d   1      13.484  20.079  29.435  1.00  0.00     0.275 HD
ATOM     35  HN1 T3  d   1      12.311  21.270  29.612  1.00  0.00     0.275 HD
ENDBRANCH  27  32
ENDBRANCH  24  27
ENDBRANCH   1  24
TORSDOF 7
