REMARK  5 active torsions:
REMARK  status: ('A' for Active; 'I' for Inactive)
REMARK    1  A    between atoms: N_1  and  C_10 
REMARK    2  A    between atoms: N_1  and  C_17 
REMARK    3  A    between atoms: C_3  and  C_14 
REMARK    4  A    between atoms: C_26  and  C_27 
REMARK    5  A    between atoms: C_27  and  O_29 
ROOT
ATOM      1  N   LIG     1      15.490  20.678  27.137  1.00  0.00    -0.355 N 
ATOM      2  H   LIG     1      15.559  20.703  26.124  1.00  0.00     0.166 HD
ENDROOT
BRANCH   1   3
ATOM      3  C   LIG     1      15.429  19.410  27.659  1.00  0.00     0.033 A 
ATOM      4  C   LIG     1      14.626  19.188  28.777  1.00  0.00    -0.057 A 
ATOM      5  C   LIG     1      14.522  17.910  29.323  1.00  0.00    -0.080 A 
ATOM      6  HC  LIG     1      14.071  20.026  29.231  1.00  0.00     0.086 H 
ATOM      7  C   LIG     1      15.206  16.844  28.743  1.00  0.00    -0.068 A 
ATOM      8  HC  LIG     1      13.897  17.742  30.216  1.00  0.00     0.083 H 
ATOM      9  C   LIG     1      15.995  17.046  27.606  1.00  0.00     0.050 A 
ATOM     10  HC  LIG     1      15.125  15.836  29.183  1.00  0.00     0.084 H 
ATOM     11  C   LIG     1      16.095  18.332  27.067  1.00  0.00    -0.043 A 
ATOM     12  HC  LIG     1      16.706  18.498  26.164  1.00  0.00     0.088 H 
BRANCH   9  13
ATOM     13  C   LIG     1      16.739  15.896  26.933  1.00  0.00     0.417 C 
ATOM     14  F   LIG     1      17.308  15.078  27.837  1.00  0.00    -0.166 F 
ATOM     15  F   LIG     1      17.729  16.344  26.140  1.00  0.00    -0.166 F 
ATOM     16  F   LIG     1      15.953  15.121  26.162  1.00  0.00    -0.166 F 
ENDBRANCH   9  13
ENDBRANCH   1   3
BRANCH   1  17
ATOM     17  C   LIG     1      15.551  21.918  27.731  1.00  0.00     0.049 A 
ATOM     18  C   LIG     1      14.427  22.774  27.764  1.00  0.00     0.064 A 
ATOM     19  C   LIG     1      14.554  24.015  28.410  1.00  0.00    -0.064 A 
ATOM     20  C   LIG     1      15.746  24.396  29.020  1.00  0.00    -0.082 A 
ATOM     21  HC  LIG     1      13.691  24.702  28.434  1.00  0.00     0.085 H 
ATOM     22  C   LIG     1      16.836  23.538  29.004  1.00  0.00    -0.081 A 
ATOM     23  HC  LIG     1      15.824  25.379  29.515  1.00  0.00     0.083 H 
ATOM     24  C   LIG     1      16.736  22.306  28.368  1.00  0.00    -0.056 A 
ATOM     25  HC  LIG     1      17.779  23.832  29.494  1.00  0.00     0.083 H 
ATOM     26  HC  LIG     1      17.603  21.624  28.365  1.00  0.00     0.086 H 
BRANCH  18  27
ATOM     27  C   LIG     1      13.099  22.407  27.124  1.00  0.00     0.178 C 
ATOM     28  O   LIG     1      12.115  22.019  27.720  1.00  0.00    -0.646 OA
BRANCH  27  29
ATOM     29  O   LIG     1      13.041  22.537  25.825  1.00  0.00    -0.773 OA
ATOM     30  H   LIG     1      13.033  21.633  25.464  1.00  0.00     0.167 HD
ENDBRANCH  27  29
ENDBRANCH  18  27
ENDBRANCH   1  17
TORSDOF 5
