REMARK  5 active torsions:
REMARK  status: ('A' for Active; 'I' for Inactive)
REMARK    1  A    between atoms: N_1  and  C_16 
REMARK    2  A    between atoms: N_1  and  C_17 
REMARK    3  A    between atoms: C_5  and  C_6 
REMARK    4  A    between atoms: C_26  and  C_27 
REMARK    5  A    between atoms: C_27  and  O_29 
ROOT
ATOM      1  N   LIG     1      16.285  18.787  27.359  1.00  0.00    -0.353 N 
ATOM      2  H   LIG     1      16.030  18.510  26.416  1.00  0.00     0.166 HD
ENDROOT
BRANCH   1   3
ATOM      3  C   LIG     1      15.890  20.056  27.697  1.00  0.00     0.077 A 
ATOM      4  C   LIG     1      14.916  20.246  28.687  1.00  0.00     0.068 A 
ATOM      5 CL   LIG     1      14.205  18.868  29.471  1.00  0.00    -0.081 Cl
ATOM      6  C   LIG     1      14.499  21.539  29.028  1.00  0.00    -0.038 A 
ATOM      7  C   LIG     1      15.077  22.638  28.387  1.00  0.00    -0.074 A 
ATOM      8  C   LIG     1      16.053  22.452  27.412  1.00  0.00    -0.059 A 
ATOM      9  HC  LIG     1      14.758  23.659  28.655  1.00  0.00     0.084 H 
ATOM     10  C   LIG     1      16.457  21.167  27.062  1.00  0.00     0.062 A 
ATOM     11  HC  LIG     1      16.508  23.326  26.915  1.00  0.00     0.086 H 
ATOM     12 CL   LIG     1      17.681  20.985  25.846  1.00  0.00    -0.082 Cl
BRANCH   6  13
ATOM     13  C   LIG     1      13.420  21.767  30.077  1.00  0.00    -0.050 C 
ATOM     14  HC3 LIG     1      12.519  21.181  29.779  1.00  0.00     0.033 H 
ATOM     15  HC2 LIG     1      13.732  21.247  31.012  1.00  0.00     0.033 H 
ATOM     16  HC1 LIG     1      13.088  22.796  30.348  1.00  0.00     0.033 H 
ENDBRANCH   6  13
ENDBRANCH   1   3
BRANCH   1  17
ATOM     17  C   LIG     1      17.233  17.978  27.941  1.00  0.00     0.049 A 
ATOM     18  C   LIG     1      17.133  16.569  27.887  1.00  0.00     0.064 A 
ATOM     19  C   LIG     1      18.158  15.808  28.473  1.00  0.00    -0.064 A 
ATOM     20  C   LIG     1      19.249  16.414  29.090  1.00  0.00    -0.082 A 
ATOM     21  HC  LIG     1      18.097  14.707  28.444  1.00  0.00     0.085 H 
ATOM     22  C   LIG     1      19.336  17.798  29.139  1.00  0.00    -0.081 A 
ATOM     23  HC  LIG     1      20.043  15.795  29.539  1.00  0.00     0.083 H 
ATOM     24  C   LIG     1      18.334  18.574  28.569  1.00  0.00    -0.056 A 
ATOM     25  HC  LIG     1      20.198  18.281  29.629  1.00  0.00     0.083 H 
ATOM     26  HC  LIG     1      18.407  19.674  28.612  1.00  0.00     0.086 H 
BRANCH  18  27
ATOM     27  C   LIG     1      15.966  15.856  27.228  1.00  0.00     0.178 C 
ATOM     28  O   LIG     1      16.043  15.123  26.263  1.00  0.00    -0.646 OA
BRANCH  27  29
ATOM     29  O   LIG     1      14.794  16.072  27.765  1.00  0.00    -0.773 OA
ATOM     30  H   LIG     1      14.379  15.197  27.862  1.00  0.00     0.167 HD
ENDBRANCH  27  29
ENDBRANCH  18  27
ENDBRANCH   1  17
TORSDOF 5
