REMARK  6 active torsions:
REMARK  status: ('A' for Active; 'I' for Inactive)
REMARK    1  A    between atoms: C_5  and  C_11 
REMARK    2  A    between atoms: C_10  and  O_18 
REMARK    3  A    between atoms: C_11  and  C_14 
REMARK    4  A    between atoms: C_14  and  O_16 
REMARK    5  A    between atoms: O_18  and  C_19 
REMARK    6  A    between atoms: C_24  and  O_29 
ROOT
ATOM      1  I   LIG     1      17.724  21.453  26.599  1.00  0.00    -0.042 I 
ATOM      2  C   LIG     1      16.540  19.990  27.529  1.00  0.00     0.042 A 
ATOM      3  C   LIG     1      16.741  18.652  27.198  1.00  0.00    -0.058 A 
ATOM      4  HC  LIG     1      17.489  18.381  26.434  1.00  0.00     0.086 H 
ATOM      5  C   LIG     1      15.998  17.653  27.830  1.00  0.00    -0.046 A 
ATOM      6  C   LIG     1      15.034  18.006  28.778  1.00  0.00    -0.058 A 
ATOM      7  HC  LIG     1      14.430  17.223  29.266  1.00  0.00     0.086 H 
ATOM      8  C   LIG     1      14.833  19.344  29.108  1.00  0.00     0.042 A 
ATOM      9  I   LIG     1      13.419  19.823  30.583  1.00  0.00    -0.042 I 
ATOM     10  C   LIG     1      15.592  20.342  28.492  1.00  0.00     0.109 A 
ENDROOT
BRANCH  10  11
ATOM     11  O   LIG     1      15.465  21.656  28.893  1.00  0.00    -0.308 OA
BRANCH  11  12
ATOM     12  C   LIG     1      14.546  22.526  28.333  1.00  0.00     0.077 A 
ATOM     13  C   LIG     1      13.873  22.130  27.179  1.00  0.00    -0.048 A 
ATOM     14  C   LIG     1      12.940  22.977  26.585  1.00  0.00    -0.047 A 
ATOM     15  HC  LIG     1      14.080  21.142  26.734  1.00  0.00     0.087 H 
ATOM     16  C   LIG     1      12.675  24.228  27.143  1.00  0.00     0.082 A 
ATOM     17  HC  LIG     1      12.410  22.658  25.672  1.00  0.00     0.087 H 
ATOM     18  C   LIG     1      13.348  24.625  28.300  1.00  0.00     0.042 A 
ATOM     19  C   LIG     1      14.281  23.780  28.895  1.00  0.00    -0.032 A 
ATOM     20  I   LIG     1      12.979  26.498  29.174  1.00  0.00    -0.042 I 
ATOM     21  HC  LIG     1      14.811  24.099  29.808  1.00  0.00     0.089 H 
BRANCH  16  22
ATOM     22  O   LIG     1      11.762  25.051  26.558  1.00  0.00    -0.359 OA
ATOM     23  H   LIG     1      10.907  24.586  26.503  1.00  0.00     0.217 HD
ENDBRANCH  16  22
ENDBRANCH  11  12
ENDBRANCH  10  11
BRANCH   5  24
ATOM     24  C   LIG     1      16.279  16.187  27.535  1.00  0.00     0.036 C 
ATOM     25  HC2 LIG     1      15.433  15.538  27.860  1.00  0.00     0.056 H 
ATOM     26  HC1 LIG     1      16.247  15.979  26.440  1.00  0.00     0.056 H 
BRANCH  24  27
ATOM     27  C   LIG     1      17.591  15.733  28.146  1.00  0.00     0.143 C 
ATOM     28  O   LIG     1      17.738  15.411  29.308  1.00  0.00    -0.650 OA
BRANCH  27  29
ATOM     29  O   LIG     1      18.579  15.718  27.295  1.00  0.00    -0.776 OA
ATOM     30  H   LIG     1      18.647  14.799  26.979  1.00  0.00     0.167 HD
ENDBRANCH  27  29
ENDBRANCH  24  27
ENDBRANCH   5  24
TORSDOF 6
